Version 4
SHEET 1 1604 708
WIRE 400 -288 336 -288
WIRE 768 -288 528 -288
WIRE 928 -288 768 -288
WIRE 768 -256 768 -288
WIRE 928 -256 928 -288
WIRE 400 -240 176 -240
WIRE 560 -240 528 -240
WIRE 592 -240 560 -240
WIRE 688 -240 672 -240
WIRE 720 -240 688 -240
WIRE 176 -192 176 -240
WIRE 336 -192 336 -288
WIRE 400 -192 336 -192
WIRE 560 -192 560 -240
WIRE 560 -192 528 -192
WIRE 336 -144 336 -192
WIRE 400 -144 336 -144
WIRE 768 -144 768 -192
WIRE 768 -144 528 -144
WIRE 928 -144 928 -176
WIRE 928 -144 768 -144
WIRE 176 -80 176 -112
WIRE 336 -80 336 -144
WIRE 336 -80 176 -80
WIRE 176 -32 176 -80
WIRE 688 224 496 224
WIRE 928 224 928 -144
WIRE 928 224 784 224
WIRE 1040 224 928 224
WIRE 1136 224 1120 224
WIRE 1248 224 1216 224
WIRE 1536 224 1248 224
WIRE 1248 272 1248 224
WIRE 496 320 496 224
WIRE 1536 320 1536 224
WIRE 768 336 768 272
WIRE 928 352 928 224
WIRE 1248 400 1248 352
WIRE 496 528 496 400
WIRE 928 528 928 416
WIRE 928 528 496 528
WIRE 1248 528 1248 464
WIRE 1248 528 928 528
WIRE 1536 528 1536 400
WIRE 1536 528 1248 528
WIRE 496 688 496 528
FLAG 688 -240 gate
FLAG 768 336 gate
FLAG 496 688 0
FLAG 176 -32 0
SYMBOL voltage 176 -208 R0
WINDOW 0 35 56 Left 2
WINDOW 3 -447 65 Left 2
WINDOW 123 0 0 Left 0
WINDOW 39 0 0 Left 0
SYMATTR InstName V1
SYMATTR Value PULSE(0 3.3 0 10n 10n {D*T} {T})
SYMBOL cap 752 -256 R0
SYMATTR InstName C1
SYMATTR Value 1µ
SYMBOL voltage 928 -272 R0
WINDOW 0 35 56 Left 2
WINDOW 3 35 84 Invisible 2
WINDOW 123 0 0 Left 0
WINDOW 39 0 0 Left 0
SYMATTR InstName V2
SYMATTR Value 13
SYMBOL HCPL-3120 464 -224 R0
SYMATTR InstName U1
SYMBOL nmos 688 272 R270
SYMATTR InstName Q1
SYMATTR Value irf630
SYMATTR Prefix X
SYMBOL voltage 496 304 R0
WINDOW 3 24 96 Invisible 2
WINDOW 123 0 0 Left 0
WINDOW 39 0 0 Left 0
SYMATTR Value 24
SYMATTR InstName V3
SYMBOL cap 1232 400 R0
SYMATTR InstName C2
SYMATTR Value 10µ
SYMBOL ind 1024 240 R270
WINDOW 0 32 56 VTop 2
WINDOW 3 5 56 VBottom 2
SYMATTR InstName L1
SYMATTR Value 8m
SYMBOL res 1520 304 R0
SYMATTR InstName R1
SYMATTR Value 24
SYMBOL res 688 -256 R90
WINDOW 0 0 56 VBottom 2
WINDOW 3 32 56 VTop 2
SYMATTR InstName R2
SYMATTR Value 10
SYMBOL 1N5822 928 384 R270
SYMATTR InstName U2
SYMBOL res 1232 208 R90
WINDOW 0 0 56 VBottom 2
WINDOW 3 32 56 VTop 2
SYMATTR InstName R3
SYMATTR Value 13.5
SYMBOL res 1232 256 R0
SYMATTR InstName R4
SYMATTR Value 2.08
TEXT -272 -176 Left 2 !.param D=0.5 f=10e3 T={1/f}
TEXT -272 -208 Left 2 !.tran 0 0.01 0 1e-9
TEXT 656 112 Left 2 !.include sihf630.lib
